*SPEF "ieee 1481-1999"
*DESIGN "user_proj_example"
*DATE "11:11:11 Fri 11 11, 1111"
*VENDOR "OpenRCX"
*PROGRAM "Parallel Extraction"
*VERSION "1.0"
*DESIGN_FLOW "NAME_SCOPE LOCAL" "PIN_CAP NONE"
*DIVIDER /
*DELIMITER :
*BUS_DELIMITER []
*T_UNIT 1 NS
*C_UNIT 1 PF
*R_UNIT 1 OHM
*L_UNIT 1 HENRY

*NAME_MAP
*1 io_in[0]
*2 io_in[10]
*3 io_in[11]
*4 io_in[12]
*5 io_in[13]
*6 io_in[14]
*7 io_in[15]
*8 io_in[16]
*9 io_in[17]
*10 io_in[18]
*11 io_in[19]
*12 io_in[1]
*13 io_in[20]
*14 io_in[21]
*15 io_in[22]
*16 io_in[23]
*17 io_in[24]
*18 io_in[25]
*19 io_in[26]
*20 io_in[27]
*21 io_in[28]
*22 io_in[29]
*23 io_in[2]
*24 io_in[30]
*25 io_in[31]
*26 io_in[32]
*27 io_in[33]
*28 io_in[34]
*29 io_in[35]
*30 io_in[36]
*31 io_in[37]
*32 io_in[3]
*33 io_in[4]
*34 io_in[5]
*35 io_in[6]
*36 io_in[7]
*37 io_in[8]
*38 io_in[9]
*39 net34
*40 net77
*41 net78
*42 net44
*43 net45
*44 net46
*45 net47
*46 net48
*47 net49
*48 net50
*49 net51
*50 net35
*51 net52
*52 net53
*53 net54
*54 net55
*55 net56
*56 net57
*57 net58
*58 net59
*59 net60
*60 net61
*61 net36
*62 net62
*63 net63
*64 net64
*65 net65
*66 net66
*67 net67
*68 net68
*69 net69
*70 net37
*71 net38
*72 net39
*73 net40
*74 net41
*75 net42
*76 net43
*77 net70
*78 net13
*79 net14
*80 io_out[12]
*81 io_out[13]
*82 io_out[14]
*83 io_out[15]
*84 io_out[16]
*85 io_out[17]
*86 io_out[18]
*87 net15
*88 net71
*89 net16
*90 net17
*91 net18
*92 net19
*93 net20
*94 net21
*95 net22
*96 net23
*97 net24
*98 net25
*99 net72
*100 net26
*101 net27
*102 net28
*103 net29
*104 net30
*105 net31
*106 net32
*107 net33
*108 net73
*109 net74
*110 net75
*111 net76
*112 net10
*113 net11
*114 net12
*117 _000_
*118 _001_
*119 _002_
*120 _003_
*121 _004_
*122 _005_
*123 _006_
*124 _007_
*125 _008_
*126 _009_
*127 _010_
*128 _011_
*129 _012_
*130 _013_
*131 _014_
*132 _015_
*133 _016_
*134 _017_
*135 _018_
*136 _019_
*137 _020_
*138 _021_
*139 _022_
*140 b0\.bcd\[0\]
*141 b0\.bin\[1\]
*142 b0\.bin\[2\]
*143 b0\.bin\[3\]
*144 net1
*145 net2
*146 net3
*147 net4
*148 net5
*149 net6
*150 net7
*151 net8
*152 net9
*153 ANTENNA__053__CLK
*154 ANTENNA__054__CLK
*155 ANTENNA__055__CLK
*156 ANTENNA__056__CLK
*157 ANTENNA_input1_A
*158 ANTENNA_input2_A
*159 ANTENNA_output9_A
*160 FILLER_0_1005
*161 FILLER_0_1009
*162 FILLER_0_1021
*163 FILLER_0_1033
*164 FILLER_0_1037
*165 FILLER_0_1049
*166 FILLER_0_1061
*167 FILLER_0_1065
*168 FILLER_0_1077
*169 FILLER_0_1089
*170 FILLER_0_109
*171 FILLER_0_1093
*172 FILLER_0_1105
*173 FILLER_0_1117
*174 FILLER_0_1121
*175 FILLER_0_113
*176 FILLER_0_1133
*177 FILLER_0_1145
*178 FILLER_0_1149
*179 FILLER_0_1161
*180 FILLER_0_1173
*181 FILLER_0_1177
*182 FILLER_0_1189
*183 FILLER_0_1201
*184 FILLER_0_1205
*185 FILLER_0_1217
*186 FILLER_0_1229
*187 FILLER_0_1233
*188 FILLER_0_1245
*189 FILLER_0_125
*190 FILLER_0_1257
*191 FILLER_0_1261
*192 FILLER_0_1273
*193 FILLER_0_1285
*194 FILLER_0_1289
*195 FILLER_0_1301
*196 FILLER_0_1313
*197 FILLER_0_1317
*198 FILLER_0_1329
*199 FILLER_0_1341
*200 FILLER_0_1345
*201 FILLER_0_1357
*202 FILLER_0_1369
*203 FILLER_0_137
*204 FILLER_0_1373
*205 FILLER_0_1385
*206 FILLER_0_1397
*207 FILLER_0_1401
*208 FILLER_0_141
*209 FILLER_0_1413
*210 FILLER_0_1425
*211 FILLER_0_1429
*212 FILLER_0_1441
*213 FILLER_0_1453
*214 FILLER_0_1457
*215 FILLER_0_1469
*216 FILLER_0_1481
*217 FILLER_0_1485
*218 FILLER_0_1497
*219 FILLER_0_15
*220 FILLER_0_1509
*221 FILLER_0_1513
*222 FILLER_0_1525
*223 FILLER_0_153
*224 FILLER_0_1537
*225 FILLER_0_1541
*226 FILLER_0_1553
*227 FILLER_0_1565
*228 FILLER_0_1569
*229 FILLER_0_1581
*230 FILLER_0_1593
*231 FILLER_0_1597
*232 FILLER_0_1609
*233 FILLER_0_1621
*234 FILLER_0_1625
*235 FILLER_0_1637
*236 FILLER_0_1649
*237 FILLER_0_165
*238 FILLER_0_1653
*239 FILLER_0_1665
*240 FILLER_0_1677
*241 FILLER_0_1681
*242 FILLER_0_169
*243 FILLER_0_1693
*244 FILLER_0_1705
*245 FILLER_0_1709
*246 FILLER_0_1721
*247 FILLER_0_1733
*248 FILLER_0_1737
*249 FILLER_0_1749
*250 FILLER_0_1761
*251 FILLER_0_1765
*252 FILLER_0_1777
*253 FILLER_0_1789
*254 FILLER_0_1793
*255 FILLER_0_1805
*256 FILLER_0_181
*257 FILLER_0_1817
*258 FILLER_0_1821
*259 FILLER_0_1833
*260 FILLER_0_1845
*261 FILLER_0_1849
*262 FILLER_0_1861
*263 FILLER_0_1873
*264 FILLER_0_1877
*265 FILLER_0_1889
*266 FILLER_0_1901
*267 FILLER_0_1905
*268 FILLER_0_1917
*269 FILLER_0_193
*270 FILLER_0_197
*271 FILLER_0_209
*272 FILLER_0_221
*273 FILLER_0_225
*274 FILLER_0_237
*275 FILLER_0_249
*276 FILLER_0_253
*277 FILLER_0_265
*278 FILLER_0_27
*279 FILLER_0_277
*280 FILLER_0_281
*281 FILLER_0_29
*282 FILLER_0_293
*283 FILLER_0_3
*284 FILLER_0_305
*285 FILLER_0_309
*286 FILLER_0_321
*287 FILLER_0_333
*288 FILLER_0_337
*289 FILLER_0_349
*290 FILLER_0_361
*291 FILLER_0_365
*292 FILLER_0_377
*293 FILLER_0_389
*294 FILLER_0_393
*295 FILLER_0_405
*296 FILLER_0_41
*297 FILLER_0_417
*298 FILLER_0_421
*299 FILLER_0_433
*300 FILLER_0_445
*301 FILLER_0_449
*302 FILLER_0_461
*303 FILLER_0_473
*304 FILLER_0_477
*305 FILLER_0_489
*306 FILLER_0_501
*307 FILLER_0_505
*308 FILLER_0_517
*309 FILLER_0_529
*310 FILLER_0_53
*311 FILLER_0_533
*312 FILLER_0_545
*313 FILLER_0_557
*314 FILLER_0_561
*315 FILLER_0_57
*316 FILLER_0_573
*317 FILLER_0_585
*318 FILLER_0_589
*319 FILLER_0_601
*320 FILLER_0_613
*321 FILLER_0_617
*322 FILLER_0_629
*323 FILLER_0_641
*324 FILLER_0_645
*325 FILLER_0_657
*326 FILLER_0_669
*327 FILLER_0_673
*328 FILLER_0_685
*329 FILLER_0_69
*330 FILLER_0_697
*331 FILLER_0_701
*332 FILLER_0_713
*333 FILLER_0_725
*334 FILLER_0_729
*335 FILLER_0_741
*336 FILLER_0_753
*337 FILLER_0_757
*338 FILLER_0_769
*339 FILLER_0_781
*340 FILLER_0_785
*341 FILLER_0_797
*342 FILLER_0_809
*343 FILLER_0_81
*344 FILLER_0_813
*345 FILLER_0_825
*346 FILLER_0_837
*347 FILLER_0_841
*348 FILLER_0_85
*349 FILLER_0_853
*350 FILLER_0_865
*351 FILLER_0_869
*352 FILLER_0_881
*353 FILLER_0_893
*354 FILLER_0_897
*355 FILLER_0_909
*356 FILLER_0_921
*357 FILLER_0_925
*358 FILLER_0_937
*359 FILLER_0_949
*360 FILLER_0_953
*361 FILLER_0_965
*362 FILLER_0_97
*363 FILLER_0_977
*364 FILLER_0_981
*365 FILLER_0_993
*366 FILLER_100_1005
*367 FILLER_100_1017
*368 FILLER_100_1029
*369 FILLER_100_1035
*370 FILLER_100_1037
*371 FILLER_100_1049
*372 FILLER_100_1061
*373 FILLER_100_1073
*374 FILLER_100_1085
*375 FILLER_100_109
*376 FILLER_100_1091
*377 FILLER_100_1093
*378 FILLER_100_1105
*379 FILLER_100_1117
*380 FILLER_100_1129
*381 FILLER_100_1141
*382 FILLER_100_1147
*383 FILLER_100_1149
*384 FILLER_100_1161
*385 FILLER_100_1173
*386 FILLER_100_1185
*387 FILLER_100_1197
*388 FILLER_100_1203
*389 FILLER_100_1205
*390 FILLER_100_121
*391 FILLER_100_1217
*392 FILLER_100_1229
*393 FILLER_100_1241
*394 FILLER_100_1253
*395 FILLER_100_1259
*396 FILLER_100_1261
*397 FILLER_100_1273
*398 FILLER_100_1285
*399 FILLER_100_1297
*400 FILLER_100_1309
*401 FILLER_100_1315
*402 FILLER_100_1317
*403 FILLER_100_1329
*404 FILLER_100_133
*405 FILLER_100_1341
*406 FILLER_100_1353
*407 FILLER_100_1365
*408 FILLER_100_1371
*409 FILLER_100_1373
*410 FILLER_100_1385
*411 FILLER_100_139
*412 FILLER_100_1397
*413 FILLER_100_1409
*414 FILLER_100_141
*415 FILLER_100_1421
*416 FILLER_100_1427
*417 FILLER_100_1429
*418 FILLER_100_1441
*419 FILLER_100_1453
*420 FILLER_100_1465
*421 FILLER_100_1477
*422 FILLER_100_1483
*423 FILLER_100_1485
*424 FILLER_100_1497
*425 FILLER_100_15
*426 FILLER_100_1509
*427 FILLER_100_1521
*428 FILLER_100_153
*429 FILLER_100_1533
*430 FILLER_100_1539
*431 FILLER_100_1541
*432 FILLER_100_1553
*433 FILLER_100_1565
*434 FILLER_100_1577
*435 FILLER_100_1589
*436 FILLER_100_1595
*437 FILLER_100_1597
*438 FILLER_100_1609
*439 FILLER_100_1621
*440 FILLER_100_1633
*441 FILLER_100_1645
*442 FILLER_100_165
*443 FILLER_100_1651
*444 FILLER_100_1653
*445 FILLER_100_1665
*446 FILLER_100_1677
*447 FILLER_100_1689
*448 FILLER_100_1701
*449 FILLER_100_1707
*450 FILLER_100_1709
*451 FILLER_100_1721
*452 FILLER_100_1733
*453 FILLER_100_1745
*454 FILLER_100_1757
*455 FILLER_100_1763
*456 FILLER_100_1765
*457 FILLER_100_177
*458 FILLER_100_1777
*459 FILLER_100_1789
*460 FILLER_100_1801
*461 FILLER_100_1813
*462 FILLER_100_1819
*463 FILLER_100_1821
*464 FILLER_100_1833
*465 FILLER_100_1845
*466 FILLER_100_1857
*467 FILLER_100_1869
*468 FILLER_100_1875
*469 FILLER_100_1877
*470 FILLER_100_1889
*471 FILLER_100_189
*472 FILLER_100_1901
*473 FILLER_100_1913
*474 FILLER_100_1925
*475 FILLER_100_195
*476 FILLER_100_197
*477 FILLER_100_209
*478 FILLER_100_221
*479 FILLER_100_233
*480 FILLER_100_245
*481 FILLER_100_251
*482 FILLER_100_253
*483 FILLER_100_265
*484 FILLER_100_27
*485 FILLER_100_277
*486 FILLER_100_289
*487 FILLER_100_29
*488 FILLER_100_3
*489 FILLER_100_301
*490 FILLER_100_307
*491 FILLER_100_309
*492 FILLER_100_321
*493 FILLER_100_333
*494 FILLER_100_345
*495 FILLER_100_357
*496 FILLER_100_363
*497 FILLER_100_365
*498 FILLER_100_377
*499 FILLER_100_389
*500 FILLER_100_401
*501 FILLER_100_41
*502 FILLER_100_413
*503 FILLER_100_419
*504 FILLER_100_421
*505 FILLER_100_433
*506 FILLER_100_445
*507 FILLER_100_457
*508 FILLER_100_469
*509 FILLER_100_475
*510 FILLER_100_477
*511 FILLER_100_489
*512 FILLER_100_501
*513 FILLER_100_513
*514 FILLER_100_525
*515 FILLER_100_53
*516 FILLER_100_531
*517 FILLER_100_533
*518 FILLER_100_545
*519 FILLER_100_557
*520 FILLER_100_569
*521 FILLER_100_581
*522 FILLER_100_587
*523 FILLER_100_589
*524 FILLER_100_601
*525 FILLER_100_613
*526 FILLER_100_625
*527 FILLER_100_637
*528 FILLER_100_643
*529 FILLER_100_645
*530 FILLER_100_65
*531 FILLER_100_657
*532 FILLER_100_669
*533 FILLER_100_681
*534 FILLER_100_693
*535 FILLER_100_699
*536 FILLER_100_701
*537 FILLER_100_713
*538 FILLER_100_725
*539 FILLER_100_737
*540 FILLER_100_749
*541 FILLER_100_755
*542 FILLER_100_757
*543 FILLER_100_769
*544 FILLER_100_77
*545 FILLER_100_781
*546 FILLER_100_793
*547 FILLER_100_805
*548 FILLER_100_811
*549 FILLER_100_813
*550 FILLER_100_825
*551 FILLER_100_83
*552 FILLER_100_837
*553 FILLER_100_849
*554 FILLER_100_85
*555 FILLER_100_861
*556 FILLER_100_867
*557 FILLER_100_869
*558 FILLER_100_881
*559 FILLER_100_893
*560 FILLER_100_905
*561 FILLER_100_917
*562 FILLER_100_923
*563 FILLER_100_925
*564 FILLER_100_937
*565 FILLER_100_949
*566 FILLER_100_961
*567 FILLER_100_97
*568 FILLER_100_973
*569 FILLER_100_979
*570 FILLER_100_981
*571 FILLER_100_993
*572 FILLER_101_1001
*573 FILLER_101_1007
*574 FILLER_101_1009
*575 FILLER_101_1021
*576 FILLER_101_1033
*577 FILLER_101_1045
*578 FILLER_101_105
*579 FILLER_101_1057
*580 FILLER_101_1063
*581 FILLER_101_1065
*582 FILLER_101_1077
*583 FILLER_101_1089
*584 FILLER_101_1101
*585 FILLER_101_111
*586 FILLER_101_1113
*587 FILLER_101_1119
*588 FILLER_101_1121
*589 FILLER_101_113
*590 FILLER_101_1133
*591 FILLER_101_1145
*592 FILLER_101_1157
*593 FILLER_101_1169
*594 FILLER_101_1175
*595 FILLER_101_1177
*596 FILLER_101_1189
*597 FILLER_101_1201
*598 FILLER_101_1213
*599 FILLER_101_1225
*600 FILLER_101_1231
*601 FILLER_101_1233
*602 FILLER_101_1245
*603 FILLER_101_125
*604 FILLER_101_1257
*605 FILLER_101_1269
*606 FILLER_101_1281
*607 FILLER_101_1287
*608 FILLER_101_1289
*609 FILLER_101_1301
*610 FILLER_101_1313
*611 FILLER_101_1325
*612 FILLER_101_1337
*613 FILLER_101_1343
*614 FILLER_101_1345
*615 FILLER_101_1357
*616 FILLER_101_1369
*617 FILLER_101_137
*618 FILLER_101_1381
*619 FILLER_101_1393
*620 FILLER_101_1399
*621 FILLER_101_1401
*622 FILLER_101_1413
*623 FILLER_101_1425
*624 FILLER_101_1437
*625 FILLER_101_1449
*626 FILLER_101_1455
*627 FILLER_101_1457
*628 FILLER_101_1469
*629 FILLER_101_1481
*630 FILLER_101_149
*631 FILLER_101_1493
*632 FILLER_101_15
*633 FILLER_101_1505
*634 FILLER_101_1511
*635 FILLER_101_1513
*636 FILLER_101_1525
*637 FILLER_101_1537
*638 FILLER_101_1549
*639 FILLER_101_1561
*640 FILLER_101_1567
*641 FILLER_101_1569
*642 FILLER_101_1581
*643 FILLER_101_1593
*644 FILLER_101_1605
*645 FILLER_101_161
*646 FILLER_101_1617
*647 FILLER_101_1623
*648 FILLER_101_1625
*649 FILLER_101_1637
*650 FILLER_101_1649
*651 FILLER_101_1661
*652 FILLER_101_167
*653 FILLER_101_1673
*654 FILLER_101_1679
*655 FILLER_101_1681
*656 FILLER_101_169
*657 FILLER_101_1693
*658 FILLER_101_1705
*659 FILLER_101_1717
*660 FILLER_101_1729
*661 FILLER_101_1735
*662 FILLER_101_1737
*663 FILLER_101_1749
*664 FILLER_101_1761
*665 FILLER_101_1773
*666 FILLER_101_1785
*667 FILLER_101_1791
*668 FILLER_101_1793
*669 FILLER_101_1805
*670 FILLER_101_181
*671 FILLER_101_1817
*672 FILLER_101_1829
*673 FILLER_101_1841
*674 FILLER_101_1847
*675 FILLER_101_1849
*676 FILLER_101_1861
*677 FILLER_101_1873
*678 FILLER_101_1885
*679 FILLER_101_1897
*680 FILLER_101_1903
*681 FILLER_101_1905
*682 FILLER_101_1917
*683 FILLER_101_193
*684 FILLER_101_205
*685 FILLER_101_217
*686 FILLER_101_223
*687 FILLER_101_225
*688 FILLER_101_237
*689 FILLER_101_249
*690 FILLER_101_261
*691 FILLER_101_27
*692 FILLER_101_273
*693 FILLER_101_279
*694 FILLER_101_281
*695 FILLER_101_293
*696 FILLER_101_3
*697 FILLER_101_305
*698 FILLER_101_317
*699 FILLER_101_329
*700 FILLER_101_335
*701 FILLER_101_337
*702 FILLER_101_349
*703 FILLER_101_361
*704 FILLER_101_373
*705 FILLER_101_385
*706 FILLER_101_39
*707 FILLER_101_391
*708 FILLER_101_393
*709 FILLER_101_405
*710 FILLER_101_417
*711 FILLER_101_429
*712 FILLER_101_441
*713 FILLER_101_447
*714 FILLER_101_449
*715 FILLER_101_461
*716 FILLER_101_473
*717 FILLER_101_485
*718 FILLER_101_497
*719 FILLER_101_503
*720 FILLER_101_505
*721 FILLER_101_51
*722 FILLER_101_517
*723 FILLER_101_529
*724 FILLER_101_541
*725 FILLER_101_55
*726 FILLER_101_553
*727 FILLER_101_559
*728 FILLER_101_561
*729 FILLER_101_57
*730 FILLER_101_573
*731 FILLER_101_585
*732 FILLER_101_597
*733 FILLER_101_609
*734 FILLER_101_615
*735 FILLER_101_617
*736 FILLER_101_629
*737 FILLER_101_641
*738 FILLER_101_653
*739 FILLER_101_665
*740 FILLER_101_671
*741 FILLER_101_673
*742 FILLER_101_685
*743 FILLER_101_69
*744 FILLER_101_697
*745 FILLER_101_709
*746 FILLER_101_721
*747 FILLER_101_727
*748 FILLER_101_729
*749 FILLER_101_741
*750 FILLER_101_753
*751 FILLER_101_765
*752 FILLER_101_777
*753 FILLER_101_783
*754 FILLER_101_785
*755 FILLER_101_797
*756 FILLER_101_809
*757 FILLER_101_81
*758 FILLER_101_821
*759 FILLER_101_833
*760 FILLER_101_839
*761 FILLER_101_841
*762 FILLER_101_853
*763 FILLER_101_865
*764 FILLER_101_877
*765 FILLER_101_889
*766 FILLER_101_895
*767 FILLER_101_897
*768 FILLER_101_909
*769 FILLER_101_921
*770 FILLER_101_93
*771 FILLER_101_933
*772 FILLER_101_945
*773 FILLER_101_951
*774 FILLER_101_953
*775 FILLER_101_965
*776 FILLER_101_977
*777 FILLER_101_989
*778 FILLER_102_1005
*779 FILLER_102_1017
*780 FILLER_102_1029
*781 FILLER_102_1035
*782 FILLER_102_1037
*783 FILLER_102_1049
*784 FILLER_102_1061
*785 FILLER_102_1073
*786 FILLER_102_1085
*787 FILLER_102_109
*788 FILLER_102_1091
*789 FILLER_102_1093
*790 FILLER_102_1105
*791 FILLER_102_1117
*792 FILLER_102_1129
*793 FILLER_102_1141
*794 FILLER_102_1147
*795 FILLER_102_1149
*796 FILLER_102_1161
*797 FILLER_102_1173
*798 FILLER_102_1185
*799 FILLER_102_1197
*800 FILLER_102_1203
*801 FILLER_102_1205
*802 FILLER_102_121
*803 FILLER_102_1217
*804 FILLER_102_1229
*805 FILLER_102_1241
*806 FILLER_102_1253
*807 FILLER_102_1259
*808 FILLER_102_1261
*809 FILLER_102_1273
*810 FILLER_102_1285
*811 FILLER_102_1297
*812 FILLER_102_1309
*813 FILLER_102_1315
*814 FILLER_102_1317
*815 FILLER_102_1329
*816 FILLER_102_133
*817 FILLER_102_1341
*818 FILLER_102_1353
*819 FILLER_102_1365
*820 FILLER_102_1371
*821 FILLER_102_1373
*822 FILLER_102_1385
*823 FILLER_102_139
*824 FILLER_102_1397
*825 FILLER_102_1409
*826 FILLER_102_141
*827 FILLER_102_1421
*828 FILLER_102_1427
*829 FILLER_102_1429
*830 FILLER_102_1441
*831 FILLER_102_1453
*832 FILLER_102_1465
*833 FILLER_102_1477
*834 FILLER_102_1483
*835 FILLER_102_1485
*836 FILLER_102_1497
*837 FILLER_102_15
*838 FILLER_102_1509
*839 FILLER_102_1521
*840 FILLER_102_153
*841 FILLER_102_1533
*842 FILLER_102_1539
*843 FILLER_102_1541
*844 FILLER_102_1553
*845 FILLER_102_1565
*846 FILLER_102_1577
*847 FILLER_102_1589
*848 FILLER_102_1595
*849 FILLER_102_1597
*850 FILLER_102_1609
*851 FILLER_102_1621
*852 FILLER_102_1633
*853 FILLER_102_1645
*854 FILLER_102_165
*855 FILLER_102_1651
*856 FILLER_102_1653
*857 FILLER_102_1665
*858 FILLER_102_1677
*859 FILLER_102_1689
*860 FILLER_102_1701
*861 FILLER_102_1707
*862 FILLER_102_1709
*863 FILLER_102_1721
*864 FILLER_102_1733
*865 FILLER_102_1745
*866 FILLER_102_1757
*867 FILLER_102_1763
*868 FILLER_102_1765
*869 FILLER_102_177
*870 FILLER_102_1777
*871 FILLER_102_1789
*872 FILLER_102_1801
*873 FILLER_102_1813
*874 FILLER_102_1819
*875 FILLER_102_1821
*876 FILLER_102_1833
*877 FILLER_102_1845
*878 FILLER_102_1857
*879 FILLER_102_1869
*880 FILLER_102_1875
*881 FILLER_102_1877
*882 FILLER_102_1889
*883 FILLER_102_189
*884 FILLER_102_1901
*885 FILLER_102_1913
*886 FILLER_102_1925
*887 FILLER_102_195
*888 FILLER_102_197
*889 FILLER_102_209
*890 FILLER_102_221
*891 FILLER_102_233
*892 FILLER_102_245
*893 FILLER_102_251
*894 FILLER_102_253
*895 FILLER_102_265
*896 FILLER_102_27
*897 FILLER_102_277
*898 FILLER_102_289
*899 FILLER_102_29
*900 FILLER_102_3
*901 FILLER_102_301
*902 FILLER_102_307
*903 FILLER_102_309
*904 FILLER_102_321
*905 FILLER_102_333
*906 FILLER_102_345
*907 FILLER_102_357
*908 FILLER_102_363
*909 FILLER_102_365
*910 FILLER_102_377
*911 FILLER_102_389
*912 FILLER_102_401
*913 FILLER_102_41
*914 FILLER_102_413
*915 FILLER_102_419
*916 FILLER_102_421
*917 FILLER_102_433
*918 FILLER_102_445
*919 FILLER_102_457
*920 FILLER_102_469
*921 FILLER_102_475
*922 FILLER_102_477
*923 FILLER_102_489
*924 FILLER_102_501
*925 FILLER_102_513
*926 FILLER_102_525
*927 FILLER_102_53
*928 FILLER_102_531
*929 FILLER_102_533
*930 FILLER_102_545
*931 FILLER_102_557
*932 FILLER_102_569
*933 FILLER_102_581
*934 FILLER_102_587
*935 FILLER_102_589
*936 FILLER_102_601
*937 FILLER_102_613
*938 FILLER_102_625
*939 FILLER_102_637
*940 FILLER_102_643
*941 FILLER_102_645
*942 FILLER_102_65
*943 FILLER_102_657
*944 FILLER_102_669
*945 FILLER_102_681
*946 FILLER_102_693
*947 FILLER_102_699
*948 FILLER_102_701
*949 FILLER_102_713
*950 FILLER_102_725
*951 FILLER_102_737
*952 FILLER_102_749
*953 FILLER_102_755
*954 FILLER_102_757
*955 FILLER_102_769
*956 FILLER_102_77
*957 FILLER_102_781
*958 FILLER_102_793
*959 FILLER_102_805
*960 FILLER_102_811
*961 FILLER_102_813
*962 FILLER_102_825
*963 FILLER_102_83
*964 FILLER_102_837
*965 FILLER_102_849
*966 FILLER_102_85
*967 FILLER_102_861
*968 FILLER_102_867
*969 FILLER_102_869
*970 FILLER_102_881
*971 FILLER_102_893
*972 FILLER_102_905
*973 FILLER_102_917
*974 FILLER_102_923
*975 FILLER_102_925
*976 FILLER_102_937
*977 FILLER_102_949
*978 FILLER_102_961
*979 FILLER_102_97
*980 FILLER_102_973
*981 FILLER_102_979
*982 FILLER_102_981
*983 FILLER_102_993
*984 FILLER_103_1001
*985 FILLER_103_1007
*986 FILLER_103_1009
*987 FILLER_103_1021
*988 FILLER_103_1033
*989 FILLER_103_1045
*990 FILLER_103_105
*991 FILLER_103_1057
*992 FILLER_103_1063
*993 FILLER_103_1065
*994 FILLER_103_1077
*995 FILLER_103_1089
*996 FILLER_103_1101
*997 FILLER_103_111
*998 FILLER_103_1113
*999 FILLER_103_1119
*1000 FILLER_103_1121
*1001 FILLER_103_113
*1002 FILLER_103_1133
*1003 FILLER_103_1145
*1004 FILLER_103_1157
*1005 FILLER_103_1169
*1006 FILLER_103_1175
*1007 FILLER_103_1177
*1008 FILLER_103_1189
*1009 FILLER_103_1201
*1010 FILLER_103_1213
*1011 FILLER_103_1225
*1012 FILLER_103_1231
*1013 FILLER_103_1233
*1014 FILLER_103_1245
*1015 FILLER_103_125
*1016 FILLER_103_1257
*1017 FILLER_103_1269
*1018 FILLER_103_1281
*1019 FILLER_103_1287
*1020 FILLER_103_1289
*1021 FILLER_103_1301
*1022 FILLER_103_1313
*1023 FILLER_103_1325
*1024 FILLER_103_1337
*1025 FILLER_103_1343
*1026 FILLER_103_1345
*1027 FILLER_103_1357
*1028 FILLER_103_1369
*1029 FILLER_103_137
*1030 FILLER_103_1381
*1031 FILLER_103_1393
*1032 FILLER_103_1399
*1033 FILLER_103_1401
*1034 FILLER_103_1413
*1035 FILLER_103_1425
*1036 FILLER_103_1437
*1037 FILLER_103_1449
*1038 FILLER_103_1455
*1039 FILLER_103_1457
*1040 FILLER_103_1469
*1041 FILLER_103_1481
*1042 FILLER_103_149
*1043 FILLER_103_1493
*1044 FILLER_103_15
*1045 FILLER_103_1505
*1046 FILLER_103_1511
*1047 FILLER_103_1513
*1048 FILLER_103_1525
*1049 FILLER_103_1537
*1050 FILLER_103_1549
*1051 FILLER_103_1561
*1052 FILLER_103_1567
*1053 FILLER_103_1569
*1054 FILLER_103_1581
*1055 FILLER_103_1593
*1056 FILLER_103_1605
*1057 FILLER_103_161
*1058 FILLER_103_1617
*1059 FILLER_103_1623
*1060 FILLER_103_1625
*1061 FILLER_103_1637
*1062 FILLER_103_1649
*1063 FILLER_103_1661
*1064 FILLER_103_167
*1065 FILLER_103_1673
*1066 FILLER_103_1679
*1067 FILLER_103_1681
*1068 FILLER_103_169
*1069 FILLER_103_1693
*1070 FILLER_103_1705
*1071 FILLER_103_1717
*1072 FILLER_103_1729
*1073 FILLER_103_1735
*1074 FILLER_103_1737
*1075 FILLER_103_1749
*1076 FILLER_103_1761
*1077 FILLER_103_1773
*1078 FILLER_103_1785
*1079 FILLER_103_1791
*1080 FILLER_103_1793
*1081 FILLER_103_1805
*1082 FILLER_103_181
*1083 FILLER_103_1817
*1084 FILLER_103_1829
*1085 FILLER_103_1841
*1086 FILLER_103_1847
*1087 FILLER_103_1849
*1088 FILLER_103_1861
*1089 FILLER_103_1873
*1090 FILLER_103_1885
*1091 FILLER_103_1897
*1092 FILLER_103_1903
*1093 FILLER_103_1905
*1094 FILLER_103_1917
*1095 FILLER_103_193
*1096 FILLER_103_205
*1097 FILLER_103_217
*1098 FILLER_103_223
*1099 FILLER_103_225
*1100 FILLER_103_237
*1101 FILLER_103_249
*1102 FILLER_103_261
*1103 FILLER_103_27
*1104 FILLER_103_273
*1105 FILLER_103_279
*1106 FILLER_103_281
*1107 FILLER_103_293
*1108 FILLER_103_3
*1109 FILLER_103_305
*1110 FILLER_103_317
*1111 FILLER_103_329
*1112 FILLER_103_335
*1113 FILLER_103_337
*1114 FILLER_103_349
*1115 FILLER_103_361
*1116 FILLER_103_373
*1117 FILLER_103_385
*1118 FILLER_103_39
*1119 FILLER_103_391
*1120 FILLER_103_393
*1121 FILLER_103_405
*1122 FILLER_103_417
*1123 FILLER_103_429
*1124 FILLER_103_441
*1125 FILLER_103_447
*1126 FILLER_103_449
*1127 FILLER_103_461
*1128 FILLER_103_473
*1129 FILLER_103_485
*1130 FILLER_103_497
*1131 FILLER_103_503
*1132 FILLER_103_505
*1133 FILLER_103_51
*1134 FILLER_103_517
*1135 FILLER_103_529
*1136 FILLER_103_541
*1137 FILLER_103_55
*1138 FILLER_103_553
*1139 FILLER_103_559
*1140 FILLER_103_561
*1141 FILLER_103_57
*1142 FILLER_103_573
*1143 FILLER_103_585
*1144 FILLER_103_597
*1145 FILLER_103_609
*1146 FILLER_103_615
*1147 FILLER_103_617
*1148 FILLER_103_629
*1149 FILLER_103_641
*1150 FILLER_103_653
*1151 FILLER_103_665
*1152 FILLER_103_671
*1153 FILLER_103_673
*1154 FILLER_103_685
*1155 FILLER_103_69
*1156 FILLER_103_697
*1157 FILLER_103_709
*1158 FILLER_103_721
*1159 FILLER_103_727
*1160 FILLER_103_729
*1161 FILLER_103_741
*1162 FILLER_103_753
*1163 FILLER_103_765
*1164 FILLER_103_777
*1165 FILLER_103_783
*1166 FILLER_103_785
*1167 FILLER_103_797
*1168 FILLER_103_809
*1169 FILLER_103_81
*1170 FILLER_103_821
*1171 FILLER_103_833
*1172 FILLER_103_839
*1173 FILLER_103_841
*1174 FILLER_103_853
*1175 FILLER_103_865
*1176 FILLER_103_877
*1177 FILLER_103_889
*1178 FILLER_103_895
*1179 FILLER_103_897
*1180 FILLER_103_909
*1181 FILLER_103_921
*1182 FILLER_103_93
*1183 FILLER_103_933
*1184 FILLER_103_945
*1185 FILLER_103_951
*1186 FILLER_103_953
*1187 FILLER_103_965
*1188 FILLER_103_977
*1189 FILLER_103_989
*1190 FILLER_104_1005
*1191 FILLER_104_1017
*1192 FILLER_104_1029
*1193 FILLER_104_1035
*1194 FILLER_104_1037
*1195 FILLER_104_1049
*1196 FILLER_104_1061
*1197 FILLER_104_1073
*1198 FILLER_104_1085
*1199 FILLER_104_109
*1200 FILLER_104_1091
*1201 FILLER_104_1093
*1202 FILLER_104_1105
*1203 FILLER_104_1117
*1204 FILLER_104_1129
*1205 FILLER_104_1141
*1206 FILLER_104_1147
*1207 FILLER_104_1149
*1208 FILLER_104_1161
*1209 FILLER_104_1173
*1210 FILLER_104_1185
*1211 FILLER_104_1197
*1212 FILLER_104_1203
*1213 FILLER_104_1205
*1214 FILLER_104_121
*1215 FILLER_104_1217
*1216 FILLER_104_1229
*1217 FILLER_104_1241
*1218 FILLER_104_1253
*1219 FILLER_104_1259
*1220 FILLER_104_1261
*1221 FILLER_104_1273
*1222 FILLER_104_1285
*1223 FILLER_104_1297
*1224 FILLER_104_1309
*1225 FILLER_104_1315
*1226 FILLER_104_1317
*1227 FILLER_104_1329
*1228 FILLER_104_133
*1229 FILLER_104_1341
*1230 FILLER_104_1353
*1231 FILLER_104_1365
*1232 FILLER_104_1371
*1233 FILLER_104_1373
*1234 FILLER_104_1385
*1235 FILLER_104_139
*1236 FILLER_104_1397
*1237 FILLER_104_1409
*1238 FILLER_104_141
*1239 FILLER_104_1421
*1240 FILLER_104_1427
*1241 FILLER_104_1429
*1242 FILLER_104_1441
*1243 FILLER_104_1453
*1244 FILLER_104_1465
*1245 FILLER_104_1477
*1246 FILLER_104_1483
*1247 FILLER_104_1485
*1248 FILLER_104_1497
*1249 FILLER_104_15
*1250 FILLER_104_1509
*1251 FILLER_104_1521
*1252 FILLER_104_153
*1253 FILLER_104_1533
*1254 FILLER_104_1539
*1255 FILLER_104_1541
*1256 FILLER_104_1553
*1257 FILLER_104_1565
*1258 FILLER_104_1577
*1259 FILLER_104_1589
*1260 FILLER_104_1595
*1261 FILLER_104_1597
*1262 FILLER_104_1609
*1263 FILLER_104_1621
*1264 FILLER_104_1633
*1265 FILLER_104_1645
*1266 FILLER_104_165
*1267 FILLER_104_1651
*1268 FILLER_104_1653
*1269 FILLER_104_1665
*1270 FILLER_104_1677
*1271 FILLER_104_1689
*1272 FILLER_104_1701
*1273 FILLER_104_1707
*1274 FILLER_104_1709
*1275 FILLER_104_1721
*1276 FILLER_104_1733
*1277 FILLER_104_1745
*1278 FILLER_104_1757
*1279 FILLER_104_1763
*1280 FILLER_104_1765
*1281 FILLER_104_177
*1282 FILLER_104_1777
*1283 FILLER_104_1789
*1284 FILLER_104_1801
*1285 FILLER_104_1813
*1286 FILLER_104_1819
*1287 FILLER_104_1821
*1288 FILLER_104_1833
*1289 FILLER_104_1845
*1290 FILLER_104_1857
*1291 FILLER_104_1869
*1292 FILLER_104_1875
*1293 FILLER_104_1877
*1294 FILLER_104_1889
*1295 FILLER_104_189
*1296 FILLER_104_1901
*1297 FILLER_104_1913
*1298 FILLER_104_1925
*1299 FILLER_104_195
*1300 FILLER_104_197
*1301 FILLER_104_209
*1302 FILLER_104_221
*1303 FILLER_104_233
*1304 FILLER_104_245
*1305 FILLER_104_251
*1306 FILLER_104_253
*1307 FILLER_104_265
*1308 FILLER_104_27
*1309 FILLER_104_277
*1310 FILLER_104_289
*1311 FILLER_104_29
*1312 FILLER_104_3
*1313 FILLER_104_301
*1314 FILLER_104_307
*1315 FILLER_104_309
*1316 FILLER_104_321
*1317 FILLER_104_333
*1318 FILLER_104_345
*1319 FILLER_104_357
*1320 FILLER_104_363
*1321 FILLER_104_365
*1322 FILLER_104_377
*1323 FILLER_104_389
*1324 FILLER_104_401
*1325 FILLER_104_41
*1326 FILLER_104_413
*1327 FILLER_104_419
*1328 FILLER_104_421
*1329 FILLER_104_433
*1330 FILLER_104_445
*1331 FILLER_104_457
*1332 FILLER_104_469
*1333 FILLER_104_475
*1334 FILLER_104_477
*1335 FILLER_104_489
*1336 FILLER_104_501
*1337 FILLER_104_513
*1338 FILLER_104_525
*1339 FILLER_104_53
*1340 FILLER_104_531
*1341 FILLER_104_533
*1342 FILLER_104_545
*1343 FILLER_104_557
*1344 FILLER_104_569
*1345 FILLER_104_581
*1346 FILLER_104_587
*1347 FILLER_104_589
*1348 FILLER_104_601
*1349 FILLER_104_613
*1350 FILLER_104_625
*1351 FILLER_104_637
*1352 FILLER_104_643
*1353 FILLER_104_645
*1354 FILLER_104_65
*1355 FILLER_104_657
*1356 FILLER_104_669
*1357 FILLER_104_681
*1358 FILLER_104_693
*1359 FILLER_104_699
*1360 FILLER_104_701
*1361 FILLER_104_713
*1362 FILLER_104_725
*1363 FILLER_104_737
*1364 FILLER_104_749
*1365 FILLER_104_755
*1366 FILLER_104_757
*1367 FILLER_104_769
*1368 FILLER_104_77
*1369 FILLER_104_781
*1370 FILLER_104_793
*1371 FILLER_104_805
*1372 FILLER_104_811
*1373 FILLER_104_813
*1374 FILLER_104_825
*1375 FILLER_104_83
*1376 FILLER_104_837
*1377 FILLER_104_849
*1378 FILLER_104_85
*1379 FILLER_104_861
*1380 FILLER_104_867
*1381 FILLER_104_869
*1382 FILLER_104_881
*1383 FILLER_104_893
*1384 FILLER_104_905
*1385 FILLER_104_917
*1386 FILLER_104_923
*1387 FILLER_104_925
*1388 FILLER_104_937
*1389 FILLER_104_949
*1390 FILLER_104_961
*1391 FILLER_104_97
*1392 FILLER_104_973
*1393 FILLER_104_979
*1394 FILLER_104_981
*1395 FILLER_104_993
*1396 FILLER_105_1001
*1397 FILLER_105_1007
*1398 FILLER_105_1009
*1399 FILLER_105_1021
*1400 FILLER_105_1033
*1401 FILLER_105_1045
*1402 FILLER_105_105
*1403 FILLER_105_1057
*1404 FILLER_105_1063
*1405 FILLER_105_1065
*1406 FILLER_105_1077
*1407 FILLER_105_1089
*1408 FILLER_105_1101
*1409 FILLER_105_111
*1410 FILLER_105_1113
*1411 FILLER_105_1119
*1412 FILLER_105_1121
*1413 FILLER_105_113
*1414 FILLER_105_1133
*1415 FILLER_105_1145
*1416 FILLER_105_1157
*1417 FILLER_105_1169
*1418 FILLER_105_1175
*1419 FILLER_105_1177
*1420 FILLER_105_1189
*1421 FILLER_105_1201
*1422 FILLER_105_1213
*1423 FILLER_105_1225
*1424 FILLER_105_1231
*1425 FILLER_105_1233
*1426 FILLER_105_1245
*1427 FILLER_105_125
*1428 FILLER_105_1257
*1429 FILLER_105_1269
*1430 FILLER_105_1281
*1431 FILLER_105_1287
*1432 FILLER_105_1289
*1433 FILLER_105_1301
*1434 FILLER_105_1313
*1435 FILLER_105_1325
*1436 FILLER_105_1337
*1437 FILLER_105_1343
*1438 FILLER_105_1345
*1439 FILLER_105_1357
*1440 FILLER_105_1369
*1441 FILLER_105_137
*1442 FILLER_105_1381
*1443 FILLER_105_1393
*1444 FILLER_105_1399
*1445 FILLER_105_1401
*1446 FILLER_105_1413
*1447 FILLER_105_1425
*1448 FILLER_105_1437
*1449 FILLER_105_1449
*1450 FILLER_105_1455
*1451 FILLER_105_1457
*1452 FILLER_105_1469
*1453 FILLER_105_1481
*1454 FILLER_105_149
*1455 FILLER_105_1493
*1456 FILLER_105_15
*1457 FILLER_105_1505
*1458 FILLER_105_1511
*1459 FILLER_105_1513
*1460 FILLER_105_1525
*1461 FILLER_105_1537
*1462 FILLER_105_1549
*1463 FILLER_105_1561
*1464 FILLER_105_1567
*1465 FILLER_105_1569
*1466 FILLER_105_1581
*1467 FILLER_105_1593
*1468 FILLER_105_1605
*1469 FILLER_105_161
*1470 FILLER_105_1617
*1471 FILLER_105_1623
*1472 FILLER_105_1625
*1473 FILLER_105_1637
*1474 FILLER_105_1649
*1475 FILLER_105_1661
*1476 FILLER_105_167
*1477 FILLER_105_1673
*1478 FILLER_105_1679
*1479 FILLER_105_1681
*1480 FILLER_105_169
*1481 FILLER_105_1693
*1482 FILLER_105_1705
*1483 FILLER_105_1717
*1484 FILLER_105_1729
*1485 FILLER_105_1735
*1486 FILLER_105_1737
*1487 FILLER_105_1749
*1488 FILLER_105_1761
*1489 FILLER_105_1773
*1490 FILLER_105_1785
*1491 FILLER_105_1791
*1492 FILLER_105_1793
*1493 FILLER_105_1805
*1494 FILLER_105_181
*1495 FILLER_105_1817
*1496 FILLER_105_1829
*1497 FILLER_105_1841
*1498 FILLER_105_1847
*1499 FILLER_105_1849
*1500 FILLER_105_1861
*1501 FILLER_105_1873
*1502 FILLER_105_1885
*1503 FILLER_105_1897
*1504 FILLER_105_1903
*1505 FILLER_105_1905
*1506 FILLER_105_1917
*1507 FILLER_105_193
*1508 FILLER_105_205
*1509 FILLER_105_217
*1510 FILLER_105_223
*1511 FILLER_105_225
*1512 FILLER_105_237